[Format]      =  4.0
[Frequency]   =  0
[Precision]   =  1e-008
[MinAngle]    =  30
[DoSmartMesh] =  1
[Depth]       =  1
[LengthUnits] =  inches
[ProblemType] =  planar
[Coordinates] =  cartesian
[ACSolver]    =  0
[PrevType]    =  0
[PrevSoln]    =  ""
[Comment]     =  "Add comments here."
[PointProps]   = 0
[BdryProps]   = 1
  <BeginBdry>
    <BdryName> = "New Boundary"
    <BdryType> = 0
    <A_0> = 0
    <A_1> = 0
    <A_2> = 0
    <Phi> = 0
    <c0> = 0
    <c0i> = 0
    <c1> = 0
    <c1i> = 0
    <Mu_ssd> = 0
    <Sigma_ssd> = 0
    <innerangle> = 0
    <outerangle> = 0
  <EndBdry>
[BlockProps]  = 3
  <BeginBlock>
    <BlockName> = "Air"
    <Mu_x> = 1
    <Mu_y> = 1
    <H_c> = 0
    <H_cAngle> = 0
    <J_re> = 0
    <J_im> = 0
    <Sigma> = 0
    <d_lam> = 0
    <Phi_h> = 0
    <Phi_hx> = 0
    <Phi_hy> = 0
    <LamType> = 0
    <LamFill> = 1
    <NStrands> = 0
    <WireD> = 0
    <BHPoints> = 0
  <EndBlock>
  <BeginBlock>
    <BlockName> = "416 Stainless Steel"
    <Mu_x> = 440
    <Mu_y> = 440
    <H_c> = 0
    <H_cAngle> = 0
    <J_re> = 0
    <J_im> = 0
    <Sigma> = 0
    <d_lam> = 0
    <Phi_h> = 0
    <Phi_hx> = 0
    <Phi_hy> = 0
    <LamType> = 0
    <LamFill> = 1
    <NStrands> = 0
    <WireD> = 0
    <BHPoints> = 12
      0	0
      0.20039999999999999	318.31
      0.42559999999999998	477.46499999999997
      0.76100000000000001	795.77499999999998
      1.097	1591.55
      1.2330000000000001	2387.3249999999998
      1.335	3978.875
      1.46	7957.75
      1.5900000000000001	15915.5
      1.6899999999999999	31831
      1.724232	44456.279999999999
      1.74	55704.25
  <EndBlock>
  <BeginBlock>
    <BlockName> = "24 AWG"
    <Mu_x> = 1
    <Mu_y> = 1
    <H_c> = 0
    <H_cAngle> = 0
    <J_re> = 0
    <J_im> = 0
    <Sigma> = 58
    <d_lam> = 0
    <Phi_h> = 0
    <Phi_hx> = 0
    <Phi_hy> = 0
    <LamType> = 3
    <LamFill> = 1
    <NStrands> = 1
    <WireD> = 0.510714027632857
    <BHPoints> = 0
  <EndBlock>
[CircuitProps]  = 1
  <BeginCircuit>
    <CircuitName> = "New Circuit"
    <TotalAmps_re> = 15
    <TotalAmps_im> = 0
    <CircuitType> = 1
  <EndCircuit>
[NumPoints] = 26
-0.45000000000000001	1.1500000000000001	0	0
-0.45000000000000001	1.4000000000000001	0	0
-1.4500000000000002	1.4000000000000001	0	0
-1.2000000000000002	1.55	0	0
-1.4500000000000002	1.55	0	0
-1.7000000000000002	1.55	0	0
-1.9500000000000002	1.55	0	0
-1.7000000000000002	2.4000000000000004	0	0
-1.4500000000000002	2.4000000000000004	0	0
-1.7000000000000002	3.25	0	0
-1.9500000000000002	3.25	0	0
-1.7000000000000002	1.1500000000000001	0	0
-1.4500000000000002	3.25	0	0
-1.4500000000000002	3.4000000000000004	0	0
-1.7000000000000002	3.6500000000000004	0	0
-1.2000000000000002	3.25	0	0
-0.45000000000000001	3.4000000000000004	0	0
-0.45000000000000001	3.6500000000000004	0	0
-0.40000000000000002	3.6500000000000004	0	0
-0.40000000000000002	1.1500000000000001	0	0
-0.20000000000000001	3.6500000000000004	0	0
-0.20000000000000001	1.1500000000000001	0	0
-4	4.5	0	0
2	4.5	0	0
2	0	0	0
-4	0	0	0
[NumSegments] = 28
2	1	-1	0	0	0
0	1	-1	0	0	0
2	4	-1	0	0	0
4	3	-1	0	0	0
7	5	-1	0	0	0
5	6	-1	0	0	0
4	8	-1	0	0	0
9	7	-1	0	0	0
10	9	-1	0	0	0
6	10	-1	0	0	0
5	11	-1	0	0	0
0	11	-1	0	0	0
14	9	-1	0	0	0
8	12	-1	0	0	0
13	12	-1	0	0	0
17	14	-1	0	0	0
13	16	-1	0	0	0
17	16	-1	0	0	0
15	12	-1	0	0	0
15	3	-1	0	0	0
19	18	-1	0	0	0
18	20	-1	0	0	0
20	21	-1	0	0	0
21	19	-1	0	0	0
22	25	-1	1	0	0
25	24	-1	1	0	0
24	23	-1	1	0	0
23	22	-1	1	0	0
[NumArcSegments] = 0
[NumHoles] = 0
[NumBlockLabels] = 5
-1.375	3	3	-1	1	0	0	600	0
-1.875	1.75	3	-1	1	0	0	-600	0
-0.75	1.25	2	-1	0	0	0	1	0
-0.25	2.375	2	-1	0	0	0	1	0
0.125	2.75	1	-1	0	0	0	1	0
